 CRYSTAL
 PRIMVEC
      3.92000007     0.00000000     0.00000000
      0.00000000     3.92000007     0.00000000
      0.00000000     0.00000000     3.31000008
 PRIMCOORD
   4  1
 Nd   1.96000004  1.96000004  1.65500004
 Ni   0.00000000  0.00000000  0.00000000
 O    1.96000004  0.00000000  0.00000000
 O    0.00000000  1.96000004  0.00000000
